[General]

sim-time-limit = 10000s

include ./networks/test.ini
include ./networks/test2.ini
