[Config cell-signaling]
network                                           = domain
sim-time-limit                                    = 1000s

domain.spaceSizeX                                 = 1000
domain.spaceSizeY                                 = 1000
domain.spaceSizeZ                                 = 1000
domain.numberOfInitialMolecules                   = 0

domain.manager.depth                              = 5
domain.manager.enableWebServer                    = 0
domain.manager.tkRefreshRate                      = 100
domain.manager.statsRefreshRate                   = 1000

domain.cell[0].mobility.radius                    = 100
domain.cell[0].mobility.mass                      = 1000
domain.cell[0].mobility.xpos                      = 500
domain.cell[0].mobility.ypos                      = 250
domain.cell[0].mobility.zpos                      = 500
domain.cell[0].mobility.vx                        = 0
domain.cell[0].mobility.vy                        = 0
domain.cell[0].mobility.vz                        = 0
domain.cell[0].mobility.listRadius                = 200
domain.cell[0].mobility.refreshListRadius         = 200
domain.cell[0].emitter.enabled                    = true
domain.cell[0].emitter.emissionStart              = 10
domain.cell[0].emitter.emissionDuration           = 100
domain.cell[0].emitter.emissionRate               = 1000
domain.cell[0].emitter.emissionParticleRadius     = 0.2
domain.cell[0].emitter.emissionParticleMass       = 1
domain.cell[0].emitter.emissionTimeToLive         = 1000
domain.cell[0].emitter.emissionBoundariesMode     = 2
domain.cell[0].emitter.emissionListRadius         = 30
domain.cell[0].emitter.emissionRefreshListRadius  = 60
domain.cell[0].receiver.enabled = false

domain.cell[1].mobility.radius                    = 100
domain.cell[1].mobility.mass                      = 1000
domain.cell[1].mobility.xpos                      = 500
domain.cell[1].mobility.ypos                      = 750
domain.cell[1].mobility.zpos                      = 500
domain.cell[1].mobility.vx                        = 0
domain.cell[1].mobility.vy                        = 0
domain.cell[1].mobility.vz                        = 0
domain.cell[1].receiver.enabled                   = true
domain.cell[1].receiver.statsRefreshRate          = 1000
domain.cell[1].emitter.enabled                    = false

domain.molecule[*].mass                           = 10
domain.molecule[*].radius                         = 15

domain.molecule[*].vx                             = normal(0,1)
domain.molecule[*].vy                             = normal(0,1)
domain.molecule[*].vz                             = normal(0,1)