[Config cell-signaling]
network = domain
sim-time-limit = 1000s

domain.spaceSizeX = 1000
domain.spaceSizeY = 1000
domain.spaceSizeZ = 1000
domain.numberOfInitialMolecules = 10000

domain.manager.enableWebServer = 0
domain.manager.tkRefreshRate = 100
domain.manager.statsRefreshRate = 1000
domain.manager.mode = 1

domain.cell[0].mobility.radius = 100
domain.cell[0].mobility.mass = 1000
domain.cell[0].mobility.xpos = 500
domain.cell[0].mobility.ypos = 250
domain.cell[0].mobility.zpos = 500
domain.cell[0].mobility.vx = 0
domain.cell[0].mobility.vy = 0
domain.cell[0].mobility.vz = 0
domain.cell[0].emitter.enabled = true
domain.cell[0].receiver.enabled = false
domain.cell[0].emitter.emissionStart = 10
domain.cell[0].emitter.emissionDuration = 100
domain.cell[0].emitter.emissionRate = 1000
domain.cell[0].emitter.emissionParticleRadius = 0.2
domain.cell[0].emitter.emissionParticleMass = 1
domain.cell[0].emitter.emissionTimeToLive = 1000
domain.cell[0].emitter.emissionBoundariesMode = 2

domain.cell[1].mobility.radius = 100
domain.cell[1].mobility.mass = 1000
domain.cell[1].mobility.xpos = 500
domain.cell[1].mobility.ypos = 750
domain.cell[1].mobility.zpos = 500
domain.cell[1].mobility.vx = 0
domain.cell[1].mobility.vy = 0
domain.cell[1].mobility.vz = 0
domain.cell[1].receiver.enabled = true
domain.cell[1].emitter.enabled = false
domain.cell[1].receiver.statsRefreshRate = 1000

domain.molecule[*].mass = 10
domain.molecule[*].radius = 15

domain.molecule[*].vx = normal(0,1)
domain.molecule[*].vy = normal(0,1)
domain.molecule[*].vz = normal(0,1)

domain.molecule[0].xpos = 408.41989998163876
domain.molecule[0].ypos = 916.3525088077247
domain.molecule[0].zpos = 75.92832385719046

domain.molecule[1].xpos = 841.8955761279747
domain.molecule[1].ypos = 325.106064965187
domain.molecule[1].zpos = 81.53901731752083

domain.molecule[2].xpos = 67.2053392270416
domain.molecule[2].ypos = 432.9280058706015
domain.molecule[2].zpos = 631.251547815448

domain.molecule[3].xpos = 452.7335638312459
domain.molecule[3].ypos = 109.1322306815371
domain.molecule[3].zpos = 267.7255065987654

domain.molecule[4].xpos = 147.62652413843423
domain.molecule[4].ypos = 497.95955158461106
domain.molecule[4].zpos = 598.2739158223219

domain.molecule[5].xpos = 55.057481200604144
domain.molecule[5].ypos = 953.949896622619
domain.molecule[5].zpos = 454.01890130870265

domain.molecule[6].xpos = 922.3127714746468
domain.molecule[6].ypos = 916.9808079993188
domain.molecule[6].zpos = 908.4455603376798

domain.molecule[7].xpos = 96.28021256223545
domain.molecule[7].ypos = 579.1127481094397
domain.molecule[7].zpos = 838.4772881671622

domain.molecule[8].xpos = 295.6040073783904
domain.molecule[8].ypos = 37.43797976447493
domain.molecule[8].zpos = 363.60525498323364

domain.molecule[9].xpos = 544.7875375898391
domain.molecule[9].ypos = 632.1356784940533
domain.molecule[9].zpos = 380.0918117320932

domain.molecule[10].xpos = 423.0731915535241
domain.molecule[10].ypos = 201.36643407091722
domain.molecule[10].zpos = 735.5379877324983

domain.molecule[11].xpos = 128.44947585759908
domain.molecule[11].ypos = 689.0500540208839
domain.molecule[11].zpos = 180.76931485131607

domain.molecule[12].xpos = 893.4374983321711
domain.molecule[12].ypos = 358.2844984244391
domain.molecule[12].zpos = 80.06818732636273

domain.molecule[13].xpos = 325.82147353019786
domain.molecule[13].ypos = 105.93490249866844
domain.molecule[13].zpos = 486.45182774326054

domain.molecule[14].xpos = 794.6636955339297
domain.molecule[14].ypos = 636.8437386389658
domain.molecule[14].zpos = 666.6661190885886

domain.molecule[15].xpos = 390.22457212366385
domain.molecule[15].ypos = 630.066054925958
domain.molecule[15].zpos = 235.07117050158084

domain.molecule[16].xpos = 452.4809348366059
domain.molecule[16].ypos = 859.3842873691417
domain.molecule[16].zpos = 36.207507666370276

domain.molecule[17].xpos = 879.4309873591944
domain.molecule[17].ypos = 431.79171663400007
domain.molecule[17].zpos = 966.6733631297782

domain.molecule[18].xpos = 692.0335907690994
domain.molecule[18].ypos = 750.6219174146488
domain.molecule[18].zpos = 231.6121309382677

domain.molecule[19].xpos = 451.4917131738573
domain.molecule[19].ypos = 468.10755892114935
domain.molecule[19].zpos = 803.6372291195974

domain.molecule[20].xpos = 329.544129708486
domain.molecule[20].ypos = 157.71973397506625
domain.molecule[20].zpos = 600.7188032909132

domain.molecule[21].xpos = 868.2901297967717
domain.molecule[21].ypos = 610.0685445863589
domain.molecule[21].zpos = 171.38628592871353

domain.molecule[22].xpos = 728.8621005920529
domain.molecule[22].ypos = 160.21609845960737
domain.molecule[22].zpos = 559.2076134138576

domain.molecule[23].xpos = 838.7353932430804
domain.molecule[23].ypos = 578.7695963091053
domain.molecule[23].zpos = 239.2370229416363

domain.molecule[24].xpos = 642.0123659695334
domain.molecule[24].ypos = 271.1173487027943
domain.molecule[24].zpos = 151.35223849367574

domain.molecule[25].xpos = 619.4034290725201
domain.molecule[25].ypos = 678.3541014689788
domain.molecule[25].zpos = 377.5929737851791

domain.molecule[26].xpos = 92.10087080875635
domain.molecule[26].ypos = 159.67800408292786
domain.molecule[26].zpos = 254.09755551878587

domain.molecule[27].xpos = 172.24685254197792
domain.molecule[27].ypos = 29.09882423391789
domain.molecule[27].zpos = 215.53480144746825

domain.molecule[28].xpos = 667.9376223862007
domain.molecule[28].ypos = 590.2881115108564
domain.molecule[28].zpos = 456.87406554043514

domain.molecule[29].xpos = 774.7811668661259
domain.molecule[29].ypos = 408.24946256976796
domain.molecule[29].zpos = 978.9761711975395

domain.molecule[30].xpos = 758.4839207787834
domain.molecule[30].ypos = 95.00684084294588
domain.molecule[30].zpos = 152.1272741692908

domain.molecule[31].xpos = 422.23607879288716
domain.molecule[31].ypos = 714.8961047611035
domain.molecule[31].zpos = 26.702339795122295

domain.molecule[32].xpos = 901.9592277721338
domain.molecule[32].ypos = 629.3241533024072
domain.molecule[32].zpos = 908.1039953294046

domain.molecule[33].xpos = 450.28809029299987
domain.molecule[33].ypos = 315.7526986200198
domain.molecule[33].zpos = 167.83583914784938

domain.molecule[34].xpos = 162.30224941781015
domain.molecule[34].ypos = 616.4918980390601
domain.molecule[34].zpos = 389.51934987835807

domain.molecule[35].xpos = 176.3816137045458
domain.molecule[35].ypos = 970.2031863566324
domain.molecule[35].zpos = 564.3721472906716

domain.molecule[36].xpos = 530.0469216394074
domain.molecule[36].ypos = 744.5490930128678
domain.molecule[36].zpos = 351.5446440961048

domain.molecule[37].xpos = 869.1871686877519
domain.molecule[37].ypos = 75.27733846258596
domain.molecule[37].zpos = 477.57998684112204

domain.molecule[38].xpos = 95.00499726429805
domain.molecule[38].ypos = 141.38577169662565
domain.molecule[38].zpos = 752.6809203617111

domain.molecule[39].xpos = 879.5344380258418
domain.molecule[39].ypos = 155.7242334253922
domain.molecule[39].zpos = 966.872392610351

domain.molecule[40].xpos = 183.36026126675532
domain.molecule[40].ypos = 612.6383231595926
domain.molecule[40].zpos = 547.9397115336567

domain.molecule[41].xpos = 379.82361383659986
domain.molecule[41].ypos = 584.1421713625848
domain.molecule[41].zpos = 858.8652954755187

domain.molecule[42].xpos = 442.0532007321551
domain.molecule[42].ypos = 479.58004247321037
domain.molecule[42].zpos = 390.1509019259199

domain.molecule[43].xpos = 263.1774098185658
domain.molecule[43].ypos = 817.8516035286546
domain.molecule[43].zpos = 20.748948936054855

domain.molecule[44].xpos = 214.18331398319677
domain.molecule[44].ypos = 574.3056503233336
domain.molecule[44].zpos = 474.95518863590655

domain.molecule[45].xpos = 455.1853154289372
domain.molecule[45].ypos = 443.8585493449889
domain.molecule[45].zpos = 947.3439681312836

domain.molecule[46].xpos = 826.2029468237258
domain.molecule[46].ypos = 325.2389245845213
domain.molecule[46].zpos = 909.3760255250916

domain.molecule[47].xpos = 976.9261415527969
domain.molecule[47].ypos = 502.45284735148994
domain.molecule[47].zpos = 447.63702713342605

domain.molecule[48].xpos = 719.5216117442421
domain.molecule[48].ypos = 432.7362273928545
domain.molecule[48].zpos = 230.58213757274896

domain.molecule[49].xpos = 627.9191932493657
domain.molecule[49].ypos = 879.2251418546609
domain.molecule[49].zpos = 193.65835947374106

domain.molecule[50].xpos = 39.222805098800364
domain.molecule[50].ypos = 80.75123942613826
domain.molecule[50].zpos = 135.58894657919407

domain.molecule[51].xpos = 887.7896514434203
domain.molecule[51].ypos = 549.8447696787141
domain.molecule[51].zpos = 358.1625731258489

domain.molecule[52].xpos = 392.507652197203
domain.molecule[52].ypos = 890.4165342046715
domain.molecule[52].zpos = 827.4954009258024

domain.molecule[53].xpos = 62.6460314650856
domain.molecule[53].ypos = 647.6682288005784
domain.molecule[53].zpos = 761.4713111325934

domain.molecule[54].xpos = 291.95213215349463
domain.molecule[54].ypos = 818.7094663169071
domain.molecule[54].zpos = 465.8853521749213

domain.molecule[55].xpos = 39.57302270846665
domain.molecule[55].ypos = 851.0827690285466
domain.molecule[55].zpos = 686.3136534734465

domain.molecule[56].xpos = 584.4196862975903
domain.molecule[56].ypos = 330.64762592006696
domain.molecule[56].zpos = 687.1365126587286

domain.molecule[57].xpos = 267.9224126778379
domain.molecule[57].ypos = 441.4466990406461
domain.molecule[57].zpos = 663.1433928377762

domain.molecule[58].xpos = 54.06010424874947
domain.molecule[58].ypos = 514.1274863147944
domain.molecule[58].zpos = 114.94446367182061

domain.molecule[59].xpos = 145.72605201665536
domain.molecule[59].ypos = 395.15112784382177
domain.molecule[59].zpos = 337.67271842964215

domain.molecule[60].xpos = 24.868503002619743
domain.molecule[60].ypos = 104.62885519413501
domain.molecule[60].zpos = 919.7617925253533

domain.molecule[61].xpos = 860.5808367619127
domain.molecule[61].ypos = 530.8563405197881
domain.molecule[61].zpos = 340.9926928106531

domain.molecule[62].xpos = 776.0238366659567
domain.molecule[62].ypos = 446.41462021198345
domain.molecule[62].zpos = 296.23714192694274

domain.molecule[63].xpos = 458.80409883491916
domain.molecule[63].ypos = 526.7657319704838
domain.molecule[63].zpos = 46.03351603884474

domain.molecule[64].xpos = 154.40803074201793
domain.molecule[64].ypos = 146.44070286926106
domain.molecule[64].zpos = 710.5735831420704

domain.molecule[65].xpos = 42.40654820965827
domain.molecule[65].ypos = 308.81460730375943
domain.molecule[65].zpos = 278.82089599658025

domain.molecule[66].xpos = 881.933080872225
domain.molecule[66].ypos = 526.0025166083894
domain.molecule[66].zpos = 853.0051569935702

domain.molecule[67].xpos = 926.4173652945854
domain.molecule[67].ypos = 420.6266267287381
domain.molecule[67].zpos = 77.4532317036599

domain.molecule[68].xpos = 137.12357482563928
domain.molecule[68].ypos = 320.3396713539794
domain.molecule[68].zpos = 796.7278104989625

domain.molecule[69].xpos = 151.51191977707893
domain.molecule[69].ypos = 63.84862313436568
domain.molecule[69].zpos = 597.2988415874377

domain.molecule[70].xpos = 716.5483444269582
domain.molecule[70].ypos = 793.6433810127735
domain.molecule[70].zpos = 830.7812337569728

domain.molecule[71].xpos = 839.9657063457951
domain.molecule[71].ypos = 386.91469214314816
domain.molecule[71].zpos = 303.1097998648718

domain.molecule[72].xpos = 940.4711932052694
domain.molecule[72].ypos = 920.5941047092736
domain.molecule[72].zpos = 19.779378561472893

domain.molecule[73].xpos = 619.6918514526285
domain.molecule[73].ypos = 95.60728896565959
domain.molecule[73].zpos = 441.2128145635895

domain.molecule[74].xpos = 708.6878348064445
domain.molecule[74].ypos = 899.1389731915503
domain.molecule[74].zpos = 707.0460585729986

domain.molecule[75].xpos = 467.36965115338785
domain.molecule[75].ypos = 593.8775218736216
domain.molecule[75].zpos = 523.9754875439055

domain.molecule[76].xpos = 579.763396993915
domain.molecule[76].ypos = 45.09516996488199
domain.molecule[76].zpos = 184.5308697937824

domain.molecule[77].xpos = 246.69946050195247
domain.molecule[77].ypos = 772.9835564053453
domain.molecule[77].zpos = 310.18484606098605

domain.molecule[78].xpos = 415.2066663062967
domain.molecule[78].ypos = 466.1444152884021
domain.molecule[78].zpos = 712.4762489033699

domain.molecule[79].xpos = 732.7120553904049
domain.molecule[79].ypos = 587.5788494890392
domain.molecule[79].zpos = 315.7241607542917

domain.molecule[80].xpos = 929.091531342531
domain.molecule[80].ypos = 250.61871515743658
domain.molecule[80].zpos = 669.4118213180288

domain.molecule[81].xpos = 350.7378987774089
domain.molecule[81].ypos = 364.3958087444141
domain.molecule[81].zpos = 642.7084342359401

domain.molecule[82].xpos = 475.219096591866
domain.molecule[82].ypos = 697.3187707543209
domain.molecule[82].zpos = 843.6506894246511

domain.molecule[83].xpos = 628.7652036540046
domain.molecule[83].ypos = 652.4832334454939
domain.molecule[83].zpos = 910.0414930509239

domain.molecule[84].xpos = 628.8286364909097
domain.molecule[84].ypos = 174.3085590882063
domain.molecule[84].zpos = 394.07021326868085

domain.molecule[85].xpos = 678.2809726234361
domain.molecule[85].ypos = 902.5057854914874
domain.molecule[85].zpos = 441.82355086243

domain.molecule[86].xpos = 314.84995080081967
domain.molecule[86].ypos = 360.370591114445
domain.molecule[86].zpos = 923.0336696716793

domain.molecule[87].xpos = 292.86103313945455
domain.molecule[87].ypos = 804.1352826302707
domain.molecule[87].zpos = 46.73023722524047

domain.molecule[88].xpos = 198.05187230853588
domain.molecule[88].ypos = 164.3910793579951
domain.molecule[88].zpos = 862.0340724677615

domain.molecule[89].xpos = 747.037554477977
domain.molecule[89].ypos = 223.6025303920567
domain.molecule[89].zpos = 534.4965898843318

domain.molecule[90].xpos = 780.6083869786769
domain.molecule[90].ypos = 87.93008702730984
domain.molecule[90].zpos = 362.12500699952466

domain.molecule[91].xpos = 334.86578806925786
domain.molecule[91].ypos = 535.1026053299963
domain.molecule[91].zpos = 824.7192099752672

domain.molecule[92].xpos = 730.0710620141424
domain.molecule[92].ypos = 841.954782036303
domain.molecule[92].zpos = 575.098979954312

domain.molecule[93].xpos = 637.1634420069702
domain.molecule[93].ypos = 600.335144930689
domain.molecule[93].zpos = 489.60405092144606

domain.molecule[94].xpos = 972.2763387641705
domain.molecule[94].ypos = 753.645039949736
domain.molecule[94].zpos = 892.9659489464782

domain.molecule[95].xpos = 187.6612710805446
domain.molecule[95].ypos = 546.1864980512134
domain.molecule[95].zpos = 830.4302326884888

domain.molecule[96].xpos = 934.7161348668694
domain.molecule[96].ypos = 483.8163090932019
domain.molecule[96].zpos = 843.1559599113486

domain.molecule[97].xpos = 171.2364334512338
domain.molecule[97].ypos = 164.4980209220037
domain.molecule[97].zpos = 740.1792226118803

domain.molecule[98].xpos = 111.44303060759083
domain.molecule[98].ypos = 62.34187147736773
domain.molecule[98].zpos = 429.75277669185994

domain.molecule[99].xpos = 681.2135662549942
domain.molecule[99].ypos = 910.4882210881285
domain.molecule[99].zpos = 358.6653723327279

domain.molecule[100].xpos = 394.3966829745866
domain.molecule[100].ypos = 950.7960740050137
domain.molecule[100].zpos = 373.68188571108726

domain.molecule[101].xpos = 479.2562248736456
domain.molecule[101].ypos = 805.2957104837358
domain.molecule[101].zpos = 351.1766411356464

domain.molecule[102].xpos = 688.4192603632644
domain.molecule[102].ypos = 682.1948867050767
domain.molecule[102].zpos = 741.0141247945674

domain.molecule[103].xpos = 65.06534755153805
domain.molecule[103].ypos = 736.1952721902005
domain.molecule[103].zpos = 644.5084429524675

domain.molecule[104].xpos = 797.7260300812147
domain.molecule[104].ypos = 67.89359232800305
domain.molecule[104].zpos = 892.8232130936183

domain.molecule[105].xpos = 675.1476547649897
domain.molecule[105].ypos = 934.2201808180496
domain.molecule[105].zpos = 110.11434475349486

domain.molecule[106].xpos = 701.2881146037787
domain.molecule[106].ypos = 136.81885586975366
domain.molecule[106].zpos = 296.50697200948593

domain.molecule[107].xpos = 796.4146272970199
domain.molecule[107].ypos = 352.8343774347402
domain.molecule[107].zpos = 704.5291527422912

domain.molecule[108].xpos = 129.818380544132
domain.molecule[108].ypos = 342.63945233000663
domain.molecule[108].zpos = 547.5480099038057

domain.molecule[109].xpos = 829.7611599873587
domain.molecule[109].ypos = 66.3257180100143
domain.molecule[109].zpos = 836.4009145220577

domain.molecule[110].xpos = 456.4321780546404
domain.molecule[110].ypos = 648.238041628322
domain.molecule[110].zpos = 73.02883920882121

domain.molecule[111].xpos = 46.19946296017841
domain.molecule[111].ypos = 657.2556973380804
domain.molecule[111].zpos = 400.20326643407566

domain.molecule[112].xpos = 759.7362500002444
domain.molecule[112].ypos = 680.2292860966943
domain.molecule[112].zpos = 115.48871121525988

domain.molecule[113].xpos = 701.9109022563159
domain.molecule[113].ypos = 895.2202820211485
domain.molecule[113].zpos = 272.5523326864302

domain.molecule[114].xpos = 830.7918358586564
domain.molecule[114].ypos = 491.8071235662162
domain.molecule[114].zpos = 594.9242641839035

domain.molecule[115].xpos = 739.1363750111148
domain.molecule[115].ypos = 857.9516937366523
domain.molecule[115].zpos = 906.3509507795632

domain.molecule[116].xpos = 136.52386499259845
domain.molecule[116].ypos = 200.22362534579113
domain.molecule[116].zpos = 673.63650160067

domain.molecule[117].xpos = 381.9005613556899
domain.molecule[117].ypos = 585.8567415123641
domain.molecule[117].zpos = 155.07797995040417

domain.molecule[118].xpos = 330.9053411862649
domain.molecule[118].ypos = 788.5404847252018
domain.molecule[118].zpos = 38.155153765513006

domain.molecule[119].xpos = 173.54915690532178
domain.molecule[119].ypos = 556.8852822568103
domain.molecule[119].zpos = 631.3320180021062

domain.molecule[120].xpos = 125.82032334681824
domain.molecule[120].ypos = 115.86368467815444
domain.molecule[120].zpos = 22.103156486230343

domain.molecule[121].xpos = 109.75951514829174
domain.molecule[121].ypos = 813.5522880094893
domain.molecule[121].zpos = 882.0168768630199

domain.molecule[122].xpos = 381.2732552077457
domain.molecule[122].ypos = 225.1559557781391
domain.molecule[122].zpos = 227.45255339581743

domain.molecule[123].xpos = 462.6879659497015
domain.molecule[123].ypos = 828.3359856127597
domain.molecule[123].zpos = 741.9447918880567

domain.molecule[124].xpos = 832.6457688554026
domain.molecule[124].ypos = 412.4927746729761
domain.molecule[124].zpos = 813.9966552813373

domain.molecule[125].xpos = 620.6196489503443
domain.molecule[125].ypos = 933.633481279651
domain.molecule[125].zpos = 848.9832818803213

domain.molecule[126].xpos = 924.75686916074
domain.molecule[126].ypos = 424.29866229806316
domain.molecule[126].zpos = 558.9128540285699

domain.molecule[127].xpos = 191.85882187139467
domain.molecule[127].ypos = 671.6947717561222
domain.molecule[127].zpos = 568.9331050814897

domain.molecule[128].xpos = 395.8408496195286
domain.molecule[128].ypos = 895.3206609600991
domain.molecule[128].zpos = 681.3379593698144

domain.molecule[129].xpos = 632.0902387860067
domain.molecule[129].ypos = 306.3179469613194
domain.molecule[129].zpos = 55.16404063364715

domain.molecule[130].xpos = 960.9804839586675
domain.molecule[130].ypos = 949.7708523079589
domain.molecule[130].zpos = 164.76392558001206

domain.molecule[131].xpos = 840.2780839560389
domain.molecule[131].ypos = 601.7757712180562
domain.molecule[131].zpos = 523.1881166265182

domain.molecule[132].xpos = 821.023915232329
domain.molecule[132].ypos = 741.5089017354719
domain.molecule[132].zpos = 115.35066188702584

domain.molecule[133].xpos = 856.8035710874781
domain.molecule[133].ypos = 209.46868421200887
domain.molecule[133].zpos = 793.315980370792

domain.molecule[134].xpos = 130.20364511914775
domain.molecule[134].ypos = 180.26015289284513
domain.molecule[134].zpos = 880.566608769989

domain.molecule[135].xpos = 430.6115245695062
domain.molecule[135].ypos = 873.1469003173358
domain.molecule[135].zpos = 191.8493325115949

domain.molecule[136].xpos = 427.21294729428587
domain.molecule[136].ypos = 487.9104107983246
domain.molecule[136].zpos = 455.4717618848033

domain.molecule[137].xpos = 475.44474289443565
domain.molecule[137].ypos = 122.50510640599057
domain.molecule[137].zpos = 329.1209235034719

domain.molecule[138].xpos = 695.8410091061912
domain.molecule[138].ypos = 646.5309851399459
domain.molecule[138].zpos = 776.5639568787835

domain.molecule[139].xpos = 838.5938173338607
domain.molecule[139].ypos = 574.3268023563385
domain.molecule[139].zpos = 378.6168487641796

domain.molecule[140].xpos = 859.1007703581661
domain.molecule[140].ypos = 899.718037563546
domain.molecule[140].zpos = 221.183493902611

domain.molecule[141].xpos = 503.69174281757546
domain.molecule[141].ypos = 486.8479383333422
domain.molecule[141].zpos = 674.2341824357234

domain.molecule[142].xpos = 745.4157450391747
domain.molecule[142].ypos = 919.8415939828217
domain.molecule[142].zpos = 45.838155196218196

domain.molecule[143].xpos = 222.3419580275029
domain.molecule[143].ypos = 856.2118473850958
domain.molecule[143].zpos = 631.8592372296214

domain.molecule[144].xpos = 110.56063645676002
domain.molecule[144].ypos = 835.5377899801194
domain.molecule[144].zpos = 595.9908066146843

domain.molecule[145].xpos = 299.4855911928996
domain.molecule[145].ypos = 20.127172168979794
domain.molecule[145].zpos = 79.8770328603521

domain.molecule[146].xpos = 933.5929214201703
domain.molecule[146].ypos = 765.7819119367584
domain.molecule[146].zpos = 437.67088758683053

domain.molecule[147].xpos = 840.1303551059052
domain.molecule[147].ypos = 680.427618391516
domain.molecule[147].zpos = 338.18610505823267

domain.molecule[148].xpos = 772.8683344336994
domain.molecule[148].ypos = 270.6573885904461
domain.molecule[148].zpos = 736.4120012001902

domain.molecule[149].xpos = 314.4011641798377
domain.molecule[149].ypos = 653.0395147266634
domain.molecule[149].zpos = 91.76239943521321

domain.molecule[150].xpos = 467.8386024098679
domain.molecule[150].ypos = 120.72833653696105
domain.molecule[150].zpos = 760.9309348107151

domain.molecule[151].xpos = 131.91651758661718
domain.molecule[151].ypos = 865.9340398983866
domain.molecule[151].zpos = 156.3678553460002

domain.molecule[152].xpos = 456.15565187221614
domain.molecule[152].ypos = 237.50171608913914
domain.molecule[152].zpos = 342.1475375319667

domain.molecule[153].xpos = 111.93484535597489
domain.molecule[153].ypos = 822.6887778674088
domain.molecule[153].zpos = 645.4122721209958

domain.molecule[154].xpos = 197.95354901736826
domain.molecule[154].ypos = 604.3364714707084
domain.molecule[154].zpos = 347.260813011492

domain.molecule[155].xpos = 267.39823581807536
domain.molecule[155].ypos = 83.87832123244405
domain.molecule[155].zpos = 509.35408787260053

domain.molecule[156].xpos = 109.18963930959106
domain.molecule[156].ypos = 598.1912014067009
domain.molecule[156].zpos = 466.72481553785724

domain.molecule[157].xpos = 77.07087850587666
domain.molecule[157].ypos = 810.4358518930919
domain.molecule[157].zpos = 471.69780536478606

domain.molecule[158].xpos = 851.2462415841244
domain.molecule[158].ypos = 890.9752286474056
domain.molecule[158].zpos = 924.3408726287842

domain.molecule[159].xpos = 893.6104265965357
domain.molecule[159].ypos = 22.146879540926218
domain.molecule[159].zpos = 799.9242985357366

domain.molecule[160].xpos = 219.92669519426525
domain.molecule[160].ypos = 902.1099739211447
domain.molecule[160].zpos = 906.9023214971483

domain.molecule[161].xpos = 185.39946477085576
domain.molecule[161].ypos = 315.5309648687787
domain.molecule[161].zpos = 481.4156372488312

domain.molecule[162].xpos = 844.1499333681375
domain.molecule[162].ypos = 875.583085272631
domain.molecule[162].zpos = 448.15302453859

domain.molecule[163].xpos = 295.7977692332886
domain.molecule[163].ypos = 173.13183059374094
domain.molecule[163].zpos = 274.94963129906205

domain.molecule[164].xpos = 635.1828764092013
domain.molecule[164].ypos = 435.6034407198265
domain.molecule[164].zpos = 93.29999981139079

domain.molecule[165].xpos = 337.3315938205294
domain.molecule[165].ypos = 848.233609582933
domain.molecule[165].zpos = 747.9274478360846

domain.molecule[166].xpos = 386.36602728318644
domain.molecule[166].ypos = 511.4167443259455
domain.molecule[166].zpos = 48.37028189951778

domain.molecule[167].xpos = 631.7068064973525
domain.molecule[167].ypos = 699.2362863236874
domain.molecule[167].zpos = 156.93555922636986

domain.molecule[168].xpos = 693.2133729236036
domain.molecule[168].ypos = 798.1659895220607
domain.molecule[168].zpos = 300.00990627024544

domain.molecule[169].xpos = 586.3346800735987
domain.molecule[169].ypos = 959.3343102831229
domain.molecule[169].zpos = 244.52931638963744

domain.molecule[170].xpos = 437.23849104175565
domain.molecule[170].ypos = 476.2509235988207
domain.molecule[170].zpos = 239.81970310367868

domain.molecule[171].xpos = 356.07309026567486
domain.molecule[171].ypos = 542.2488769438885
domain.molecule[171].zpos = 377.2251454034656

domain.molecule[172].xpos = 308.8944462516181
domain.molecule[172].ypos = 190.1595076002948
domain.molecule[172].zpos = 636.1789960779086

domain.molecule[173].xpos = 802.2324520015925
domain.molecule[173].ypos = 534.6795190490618
domain.molecule[173].zpos = 939.3668844007723

domain.molecule[174].xpos = 867.9220073639251
domain.molecule[174].ypos = 959.2775970340542
domain.molecule[174].zpos = 775.4965916920289

domain.molecule[175].xpos = 423.62449677584914
domain.molecule[175].ypos = 324.7625427778646
domain.molecule[175].zpos = 61.03370573993996

domain.molecule[176].xpos = 104.08732841413692
domain.molecule[176].ypos = 352.38989204557834
domain.molecule[176].zpos = 495.78332906047103

domain.molecule[177].xpos = 961.7802395780407
domain.molecule[177].ypos = 789.3625417064711
domain.molecule[177].zpos = 968.4252174726523

domain.molecule[178].xpos = 87.35459282452464
domain.molecule[178].ypos = 536.5876234012492
domain.molecule[178].zpos = 574.0352334935985

domain.molecule[179].xpos = 140.91339616727308
domain.molecule[179].ypos = 285.41086238965613
domain.molecule[179].zpos = 909.4383851431146

domain.molecule[180].xpos = 513.3493021239362
domain.molecule[180].ypos = 569.0853671070024
domain.molecule[180].zpos = 281.5016452215448

domain.molecule[181].xpos = 143.79343798307926
domain.molecule[181].ypos = 428.117535304448
domain.molecule[181].zpos = 955.7559821700513

domain.molecule[182].xpos = 347.8282944338232
domain.molecule[182].ypos = 378.51515924249065
domain.molecule[182].zpos = 413.63856907857803

domain.molecule[183].xpos = 149.3836842749104
domain.molecule[183].ypos = 510.43322955880535
domain.molecule[183].zpos = 470.9343589625157

domain.molecule[184].xpos = 368.23649415670184
domain.molecule[184].ypos = 456.0544291736394
domain.molecule[184].zpos = 478.60696200438065

domain.molecule[185].xpos = 770.9112418854445
domain.molecule[185].ypos = 296.3758674372755
domain.molecule[185].zpos = 840.5671565459877

domain.molecule[186].xpos = 656.7468890540138
domain.molecule[186].ypos = 855.6450166242964
domain.molecule[186].zpos = 604.5849783291876

domain.molecule[187].xpos = 910.343607102225
domain.molecule[187].ypos = 745.5785219899215
domain.molecule[187].zpos = 283.55335177079064

domain.molecule[188].xpos = 453.5035261085093
domain.molecule[188].ypos = 698.8872909910813
domain.molecule[188].zpos = 902.965935314244

domain.molecule[189].xpos = 936.5701410376303
domain.molecule[189].ypos = 902.3603162278257
domain.molecule[189].zpos = 651.6683477435097

domain.molecule[190].xpos = 661.0519333758227
domain.molecule[190].ypos = 575.0857225844472
domain.molecule[190].zpos = 316.29880035685596

domain.molecule[191].xpos = 871.1353071305737
domain.molecule[191].ypos = 440.38202593492565
domain.molecule[191].zpos = 825.9080410904087

domain.molecule[192].xpos = 662.3378022682689
domain.molecule[192].ypos = 535.5520430642016
domain.molecule[192].zpos = 299.84738610608724

domain.molecule[193].xpos = 809.5088834750302
domain.molecule[193].ypos = 255.36106749128774
domain.molecule[193].zpos = 920.6225730145186

domain.molecule[194].xpos = 369.64893376844225
domain.molecule[194].ypos = 558.3500900717288
domain.molecule[194].zpos = 527.6918252363637

domain.molecule[195].xpos = 916.5732630660593
domain.molecule[195].ypos = 624.1007730636582
domain.molecule[195].zpos = 567.7284076266758

domain.molecule[196].xpos = 379.7246044261217
domain.molecule[196].ypos = 839.3136635415092
domain.molecule[196].zpos = 203.8014992831111

domain.molecule[197].xpos = 722.1299482804559
domain.molecule[197].ypos = 503.14894294522924
domain.molecule[197].zpos = 883.8578232789248

domain.molecule[198].xpos = 84.49360967770443
domain.molecule[198].ypos = 897.253399660515
domain.molecule[198].zpos = 360.92707588261214

domain.molecule[199].xpos = 625.223293615675
domain.molecule[199].ypos = 665.2862665305681
domain.molecule[199].zpos = 589.4948715406306

domain.molecule[200].xpos = 604.2171962458476
domain.molecule[200].ypos = 594.2360822243452
domain.molecule[200].zpos = 533.6358922805473

domain.molecule[201].xpos = 176.36819508083389
domain.molecule[201].ypos = 537.0401186348706
domain.molecule[201].zpos = 726.3758418002933

domain.molecule[202].xpos = 279.7942673547029
domain.molecule[202].ypos = 215.8625993520789
domain.molecule[202].zpos = 935.556831573306

domain.molecule[203].xpos = 614.3184705816045
domain.molecule[203].ypos = 911.4386858178138
domain.molecule[203].zpos = 459.8410136943519

domain.molecule[204].xpos = 703.7388867085635
domain.molecule[204].ypos = 983.83215329068
domain.molecule[204].zpos = 85.24145194718838

domain.molecule[205].xpos = 259.52585732721013
domain.molecule[205].ypos = 927.0136562750511
domain.molecule[205].zpos = 876.8285266511909
