[Config demo-emission]
network                                     = demo
sim-time-limit                              = 1000s

demo.spaceSizeX                             = 1000
demo.spaceSizeY                             = 1000
demo.spaceSizeZ                             = 1000
demo.numberOfInitialMolecules               = 0

demo.manager.depth							= 5

demo.manager.enableWebServer                = 1
demo.manager.tkRefreshRate                  = 1000
demo.manager.statsRefreshRate               = 1000
demo.manager.mode                           = 1
demo.manager.deltaTime                      = 25

demo.cell.mobility.radius                   = 100
demo.cell.mobility.mass                     = 1000

demo.cell.mobility.xpos                     = 500
demo.cell.mobility.ypos                     = 500
demo.cell.mobility.zpos                     = 500

demo.cell.mobility.vx                       = 0
demo.cell.mobility.vy                       = 0
demo.cell.mobility.vz                       = 0

demo.cell.mobility.listRadius               = 200
demo.cell.mobility.refreshListRadius        = 200

demo.cell.receiver.enabled                  = false

demo.cell.emitter.enabled                   = true
demo.cell.emitter.preloadMolecules 			= true
demo.cell.emitter.emissionStart             = 10
demo.cell.emitter.emissionDuration          = 100
demo.cell.emitter.emissionRate              = 1
demo.cell.emitter.emissionParticleRadius    = 10
demo.cell.emitter.emissionParticleMass      = 1
demo.cell.emitter.emissionTimeToLive        = 1000
demo.cell.emitter.emissionBoundariesMode    = 2
demo.cell.emitter.emissionListRadius        = 30
demo.cell.emitter.emissionRefreshListRadius = 60
demo.cell.emitter.emissionDiffusion         = 1     # nm^2/ns