##
# Brownian Motion Test
#
[Config brownian-motion-test]
                                                    # Units
sim-time-limit                          = 1000s     # ns
network                                 = BMTest

BMTest.numberOfInitialMolecules         = 64

BMTest.spaceSizeX                       = 100       # nm
BMTest.spaceSizeY                       = 100       # nm
BMTest.spaceSizeZ                       = 100       # nm

BMTest.manager.enableWebServer          = 0         # off
BMTest.manager.tkRefreshRate            = 1
BMTest.manager.statsRefreshRate         = 1000      # ps
BMTest.manager.mode                     = 1         # cell list
BMTest.manager.deltaTime                = 0.001     # ns
BMTest.manager.particleDistribution     = "cube"

BMTest.molecule[*].xpos                 = 25        # nm
BMTest.molecule[*].ypos                 = 25        # nm
BMTest.molecule[*].zpos                 = 25        # nm

BMTest.molecule[*].vx                   = normal(0, 0.11209982432) # nm/ns
BMTest.molecule[*].vy                   = normal(0, 0.11209982432) # nm/ns
BMTest.molecule[*].vz                   = normal(0, 0.11209982432) # nm/ns

BMTest.molecule[*].radius               = 1         # nm
BMTest.molecule[*].mass                 = 1         # ng

BMTest.molecule[*].diffusion            = 1         # nm²/s