#
# Test emission
#
[Config test-emitter]

sim-time-limit                                  = 900s
network                                         = domain

domain.numberOfInitialMolecules                 = 0
domain.spaceSizeX                               = 1000
domain.spaceSizeY                               = 1000
domain.spaceSizeZ                               = 1000

domain.manager.enableWebServer                  = 0 		# off
domain.manager.tkRefreshRate                    = 100 		# disabled
domain.manager.statsRefreshRate                 = 1000
domain.manager.mode                             = 1 		# cell list

domain.cell[0].mobility.radius                  = 100
domain.cell[0].mobility.mass                    = 100

domain.cell[0].mobility.xpos                    = 300
domain.cell[0].mobility.ypos                    = 500
domain.cell[0].mobility.zpos                    = 500

domain.cell[0].mobility.vx                      = 0
domain.cell[0].mobility.vy                      = 0
domain.cell[0].mobility.vz                      = 0

domain.cell[0].emitter.enabled                  = true
domain.cell[0].receiver.enabled                 = false
domain.cell[0].emitter.emissionStart            = 10
domain.cell[0].emitter.emissionDuration         = 100
domain.cell[0].emitter.emissionRate             = 100

domain.cell[0].emitter.emissionParticleRadius   = 1
domain.cell[0].emitter.emissionParticleMass     = 10
domain.cell[0].emitter.emissionTimeToLive       = 1000

domain.cell[1].mobility.radius                  = 100
domain.cell[1].mobility.mass                    = 100

domain.cell[1].mobility.xpos                    = 550
domain.cell[1].mobility.ypos                    = 500
domain.cell[1].mobility.zpos                    = 500

domain.cell[1].mobility.vx                      = 0
domain.cell[1].mobility.vy                      = 0
domain.cell[1].mobility.vz                      = 0


domain.cell[1].receiver.enabled                 = true
domain.cell[1].emitter.enabled                  = false
domain.cell[1].receiver.statsRefreshRate        = 1000

domain.molecule[*].radius                       = 1
domain.molecule[*].mass                         = 1

[Config test-emitter-brownian-motion]

sim-time-limit                                  = 20000s
network                                         = domain

domain.numberOfInitialMolecules                 = 0
domain.spaceSizeX                               = 1000
domain.spaceSizeY                               = 1000
domain.spaceSizeZ                               = 1000

domain.manager.enableWebServer                  = 0     # off
domain.manager.tkRefreshRate                    = 0     # disabled
domain.manager.statsRefreshRate                 = 1000
domain.manager.mode                             = 2     # verlet list
domain.manager.deltaTime                        = 25    # ns

domain.cell[0].mobility.radius                  = 100
domain.cell[0].mobility.mass                    = 1000

domain.cell[0].mobility.xpos                    = 250
domain.cell[0].mobility.ypos                    = 500
domain.cell[0].mobility.zpos                    = 500

domain.cell[0].mobility.vx                      = 0
domain.cell[0].mobility.vy                      = 0
domain.cell[0].mobility.vz                      = 0

domain.cell[0].emitter.enabled                  = true
domain.cell[0].receiver.enabled                 = false
domain.cell[0].emitter.emissionStart            = 0.01
domain.cell[0].emitter.emissionDuration         = 100
domain.cell[0].emitter.emissionRate             = 100

domain.cell[0].emitter.emissionParticleRadius   = 0.2
domain.cell[0].emitter.emissionParticleMass     = 1
domain.cell[0].emitter.emissionBoundariesMode   = 2     # leave domain space
domain.cell[0].emitter.emissionListRadius       = 100
domain.cell[0].emitter.emissionRefreshListRadius = 100
# domain.cell[0].emitter.emissionDiffusion        = 1     # nm^2/ns

domain.probe[0].xpos                            = 500
domain.probe[0].ypos                            = 500
domain.probe[0].zpos                            = 500
domain.probe[0].radius                          = 100
domain.probe[0].statsRefreshRate                = 1000

domain.probe[1].xpos                            = 550
domain.probe[1].ypos                            = 500
domain.probe[1].zpos                            = 500
domain.probe[1].radius                          = 100
domain.probe[1].statsRefreshRate                = 1000

domain.probe[2].xpos                            = 600
domain.probe[2].ypos                            = 500
domain.probe[2].zpos                            = 500
domain.probe[2].radius                          = 100
domain.probe[2].statsRefreshRate                = 1000

domain.probe[3].xpos                            = 650
domain.probe[3].ypos                            = 500
domain.probe[3].zpos                            = 500
domain.probe[3].radius                          = 100
domain.probe[3].statsRefreshRate                = 1000

domain.probe[4].xpos                            = 700
domain.probe[4].ypos                            = 500
domain.probe[4].zpos                            = 500
domain.probe[4].radius                          = 100
domain.probe[4].statsRefreshRate                = 1000

domain.probe[5].xpos                            = 750
domain.probe[5].ypos                            = 500
domain.probe[5].zpos                            = 500
domain.probe[5].radius                          = 100
domain.probe[5].statsRefreshRate                = 1000

domain.probe[6].xpos                            = 800
domain.probe[6].ypos                            = 500
domain.probe[6].zpos                            = 500
domain.probe[6].radius                          = 100
domain.probe[6].statsRefreshRate                = 1000

domain.probe[7].xpos                            = 850
domain.probe[7].ypos                            = 500
domain.probe[7].zpos                            = 500
domain.probe[7].radius                          = 100
domain.probe[7].statsRefreshRate                = 1000

domain.probe[8].xpos                            = 900
domain.probe[8].ypos                            = 500
domain.probe[8].zpos                            = 500
domain.probe[8].radius                          = 100
domain.probe[8].statsRefreshRate                = 1000

domain.probe[9].xpos                            = 950
domain.probe[9].ypos                            = 500
domain.probe[9].zpos                            = 500
domain.probe[9].radius                          = 100
domain.probe[9].statsRefreshRate                = 1000

include ./test-emitter-brownian-motion.ini
